data_functionalizedCrystal
_audit_creation_method	'EQeq! by Chris Wilmer'
_symmetry_space_group_name_H-M	'P1'
_symmetry_Int_Tables_number	1
_symmetry_cell_setting	triclinic
loop_
_symmetry_equiv_pos_as_xyz
  x,y,z
_cell_length_a	15.9953
_cell_length_b	15.6252
_cell_length_c	14.5863
_cell_angle_alpha	108.081
_cell_angle_beta	90.0152
_cell_angle_gamma	83.8735
loop_
_atom_site_label
_atom_site_type_symbol
_atom_site_fract_x
_atom_site_fract_y
_atom_site_fract_z
_atom_site_charge
Mof_Cu	Cu	0.18689	0.21258	0.99741	0.916
Mof_Cu	Cu	0.18692	0.21258	0.17774	0.932
Mof_C 	C 	0.60313	0.21099	0.08705	-0.084
Mof_C 	C 	0.63845	0.212	0.98695	0.195
Mof_C 	C 	0.73517	0.2135	0.98738	0.192
Mof_C 	C 	0.77069	0.21417	0.0881	-0.079
Mof_C 	C 	0.74596	0.12747	0.10915	0.209
Mof_C 	C 	0.64925	0.12556	0.10787	0.211
Mof_C 	C 	0.62853	0.2969	0.1669	0.212
Mof_C 	C 	0.72511	0.29987	0.166	0.209
Mof_C 	C 	0.86539	0.21597	0.08869	0.174
Mof_C 	C 	0.50843	0.20919	0.08646	0.185
Mof_F 	F 	0.61727	0.13755	0.91384	-0.367
Mof_F 	F 	0.6197	0.11986	0.19494	-0.356
Mof_F 	F 	0.74463	0.37829	0.1491	-0.354
Mof_F 	F 	0.7741	0.13952	0.91506	-0.364
Mof_F 	F 	0.58803	0.37496	0.15374	-0.357
Mof_F 	F 	0.77612	0.12468	0.19758	-0.358
Mof_H 	H 	0.75148	0.27562	0.9689	0.082
Mof_H 	H 	0.60776	0.27326	0.96788	0.078
Mof_H 	H 	0.63442	0.06082	0.0509	0.088
Mof_H 	H 	0.77788	0.0639	0.05338	0.087
Mof_H 	H 	0.74866	0.30553	0.2412	0.083
Mof_H 	H 	0.60559	0.29704	0.24094	0.082
Mof_C 	C 	0.03383	0.21918	0.08975	0.32
Mof_C 	C 	0.94088	0.2174	0.08916	-0.024
Mof_O 	O 	0.06501	0.21977	0.01013	-0.331
Mof_O 	O 	0.06504	0.21977	0.16978	-0.35
Mof_C 	C 	0.33999	0.20599	0.0854	0.344
Mof_C 	C 	0.43294	0.20776	0.08599	-0.046
Mof_O 	O 	0.30884	0.20512	0.16493	-0.338
Mof_O 	O 	0.30875	0.20566	0.00546	-0.331
Mof_C 	C 	0.18528	0.61854	0.30567	-0.01
Mof_C 	C 	0.18361	0.5245	0.27438	0.063
Mof_C 	C 	0.18358	0.52451	0.10816	0.379
Mof_C 	C 	0.18526	0.61855	0.13943	-0.108
Mof_C 	C 	0.1861	0.66556	0.23818	-0.012
Mof_C 	C 	0.18608	0.66557	0.07194	0.135
Mof_C 	C 	0.18775	0.7596	0.10321	0.068
Mof_C 	C 	0.18859	0.80662	0.20196	-0.129
Mof_C 	C 	0.18777	0.75959	0.26945	0.339
Mof_C 	C 	0.18523	0.61855	0.97319	-0.186
Mof_C 	C 	0.18605	0.66557	0.9057	0.362
Mof_C 	C 	0.18772	0.75961	0.93697	-0.059
Mof_C 	C 	0.18857	0.80662	0.03572	-0.06
Mof_C 	C 	0.18854	0.80663	0.86948	-0.004
Mof_C 	C 	0.19021	0.90066	0.90074	0.069
Mof_C 	C 	0.19023	0.90066	0.06698	0.392
Mof_F 	F 	0.18509	0.80684	0.36517	-0.405
Mof_F 	F 	0.18168	0.61932	0.81037	-0.415
Mof_F 	F 	0.20771	0.4665	0.01974	-0.421
Mof_F 	F 	0.2163	0.95159	0.15305	-0.423
Mof_H 	H 	0.18994	0.88319	0.22741	0.187
Mof_H 	H 	0.18597	0.65681	0.38608	0.105
Mof_H 	H 	0.18294	0.48622	0.32935	0.068
Mof_H 	H 	0.18386	0.54199	0.94773	0.189
Mof_H 	H 	0.18785	0.76835	0.78907	0.101
Mof_H 	H 	0.19088	0.93895	0.84579	0.067
Mof_C 	C 	0.19283	0.04776	0.03277	0.423
Mof_C 	C 	0.19105	0.94767	0.9995	-0.196
Mof_O 	O 	0.19344	0.08134	0.12377	-0.327
Mof_O 	O 	0.19341	0.08134	0.96411	-0.409
Mof_C 	C 	0.18099	0.37741	0.14238	0.368
Mof_C 	C 	0.18276	0.47749	0.17565	-0.148
Mof_O 	O 	0.18038	0.34383	0.05138	-0.305
Mof_O 	O 	0.18041	0.34382	0.21104	-0.373
Mof_C 	C 	0.13017	0.27399	0.65596	0.34
Mof_C 	C 	0.13018	0.274	0.55998	-0.079
Mof_C 	C 	0.24365	0.15117	0.51919	0.34
Mof_C 	C 	0.24365	0.15117	0.61517	-0.077
Mof_C 	C 	0.1869	0.21258	0.68356	-0.073
Mof_C 	C 	0.18692	0.21258	0.49159	-0.073
Mof_C 	C 	0.18693	0.21258	0.38753	0.201
Mof_C 	C 	0.18689	0.21258	0.78763	0.197
Mof_F 	F 	0.07488	0.33384	0.72158	-0.405
Mof_F 	F 	0.29927	0.09097	0.45421	-0.393
Mof_H 	H 	0.08399	0.32401	0.53753	0.114
Mof_H 	H 	0.28984	0.10115	0.63763	0.117
Mof_N 	N 	0.18688	0.21259	0.87058	-0.2
Mof_N 	N 	0.18694	0.21258	0.30457	-0.194
_end
