data_crystal

_cell_length_a 32.71784
_cell_length_b 27.36789
_cell_length_c 30.47561
_cell_angle_alpha 103.62449
_cell_angle_beta  115.74439
_cell_angle_gamma 112.42289

_symmetry_space_group_name_	'P 1'
_symmetry_space_group_name_H-M	'P 1'

loop_
_symmetry_equiv_pos_as_xyz
  x,y,z

loop_
_atom_site_label
_atom_site_type_symbol
_atom_site_fract_x
_atom_site_fract_y
_atom_site_fract_z
_atom_site_charge
C 	C 	0.58342 0.06263 0.77324 -0.00700
C 	C 	0.59731 0.08313 0.82752 -0.01600
C 	C 	0.58425 0.12217 0.84690 -0.06900
C 	C 	0.55766 0.14156 0.81259 0.08600
C 	C 	0.53884 0.11634 0.75651 -0.07300
C 	C 	0.55183 0.07709 0.73700 -0.01800
N 	N 	0.55648 0.19239 0.83709 -0.14400
C 	C 	0.62802 0.34110 0.81419 -0.00100
C 	C 	0.57152 0.29845 0.77777 -0.01600
C 	C 	0.54752 0.24963 0.78535 -0.06700
C 	C 	0.58006 0.24269 0.82894 0.08400
C 	C 	0.63644 0.28474 0.86456 -0.06700
C 	C 	0.66030 0.33386 0.85752 -0.01900
C 	C 	0.42301 0.14707 0.84722 -0.00100
C 	C 	0.47523 0.19711 0.89179 -0.02200
C 	C 	0.51842 0.21368 0.88701 -0.06700
C 	C 	0.50999 0.18025 0.83784 0.08300
C 	C 	0.45690 0.13227 0.79184 -0.06700
C 	C 	0.41362 0.11565 0.79670 -0.01900
C 	C 	0.71649 0.51175 0.82788 0.04100
C 	C 	0.73094 0.47026 0.81871 -0.04200
C 	C 	0.69906 0.41216 0.80908 -0.03400
C 	C 	0.65312 0.39559 0.80968 0.01400
C 	C 	0.63629 0.43552 0.81430 -0.03000
C 	C 	0.66759 0.49318 0.82278 -0.03300
C 	C 	0.68603 0.00919 0.76356 0.06300
C 	C 	0.68019 0.04960 0.74447 -0.04500
C 	C 	0.64209 0.06259 0.74176 -0.03600
C 	C 	0.60943 0.03503 0.75796 0.03300
C 	C 	0.61051 0.98891 0.77002 -0.05600
C 	C 	0.64898 0.97639 0.77328 -0.05300
C 	C 	0.30072 0.09424 0.87672 0.04500
C 	C 	0.34206 0.08399 0.90045 -0.03300
C 	C 	0.38093 0.09936 0.88920 -0.02900
C 	C 	0.37911 0.12572 0.85465 0.01300
C 	C 	0.33766 0.13573 0.83072 -0.03100
C 	C 	0.29889 0.12055 0.84211 -0.04600
H 	H 	0.62129 0.07192 0.85582 0.04500
H 	H 	0.59788 0.14051 0.88978 0.05800
H 	H 	0.51653 0.12933 0.72896 0.05900
H 	H 	0.54002 0.06065 0.69473 0.04000
H 	H 	0.54626 0.30345 0.74402 0.05700
H 	H 	0.50395 0.21712 0.75731 0.07300
H 	H 	0.66167 0.27951 0.89809 0.05700
H 	H 	0.70383 0.36690 0.88631 0.04600
H 	H 	0.48258 0.22218 0.93064 0.04200
H 	H 	0.55902 0.25116 0.92230 0.05600
H 	H 	0.44929 0.10757 0.75281 0.05700
H 	H 	0.37312 0.07760 0.76171 0.04800
H 	H 	0.76768 0.48358 0.82069 0.05000
H 	H 	0.71144 0.38098 0.80377 0.04400
H 	H 	0.60047 0.42294 0.81399 0.05000
H 	H 	0.65511 0.52431 0.82777 0.06200
H 	H 	0.70754 0.07380 0.73523 0.05200
H 	H 	0.64081 0.09728 0.73107 0.04500
H 	H 	0.58404 0.96567 0.78053 0.04300
H 	H 	0.65253 0.94431 0.78717 0.06500
H 	H 	0.34424 0.06451 0.92785 0.06500
H 	H 	0.41300 0.09174 0.90804 0.04900
H 	H 	0.33625 0.15650 0.80435 0.04400
H 	H 	0.26786 0.12990 0.82465 0.05000
C 	C 	0.79994 0.29595 0.52930 0.00100
C 	C 	0.82059 0.31586 0.58569 -0.02300
C 	C 	0.80814 0.35202 0.61084 -0.06500
C 	C 	0.77596 0.36982 0.58045 0.08100
C 	C 	0.75517 0.34985 0.52388 -0.06800
C 	C 	0.76632 0.31226 0.49831 -0.02300
N 	N 	0.76797 0.41182 0.60868 -0.14200
C 	C 	0.82182 0.56354 0.58365 -0.00100
C 	C 	0.76590 0.51948 0.55201 -0.02100
C 	C 	0.74730 0.47104 0.56202 -0.06800
C 	C 	0.78476 0.46616 0.60376 0.08300
C 	C 	0.84022 0.51240 0.63757 -0.06400
C 	C 	0.85871 0.56076 0.62752 -0.02100
C 	C 	0.62410 0.33084 0.60220 -0.00100
C 	C 	0.67468 0.37568 0.65300 -0.02200
C 	C 	0.72152 0.40313 0.65452 -0.06600
C 	C 	0.71847 0.38565 0.60551 0.08200
C 	C 	0.66762 0.34084 0.55454 -0.06900
C 	C 	0.62080 0.31401 0.55298 -0.02200
C 	C 	0.88092 0.69399 0.53536 0.04400
C 	C 	0.89051 0.64792 0.52906 -0.03800
C 	C 	0.87126 0.60546 0.54492 -0.03100
C 	C 	0.84218 0.60867 0.56718 0.01200
C 	C 	0.83245 0.65471 0.57340 -0.03500
C 	C 	0.85181 0.69730 0.55756 -0.03900
C 	C 	0.85876 0.20311 0.46707 0.04900
C 	C 	0.85801 0.24998 0.45625 -0.04400
C 	C 	0.83736 0.27916 0.47507 -0.02900
C 	C 	0.81583 0.26065 0.50359 0.01000
C 	C 	0.81295 0.21086 0.51076 -0.02400
C 	C 	0.83506 0.18289 0.49340 -0.03600
C 	C 	0.47039 0.24956 0.57797 0.04800
C 	C 	0.48702 0.21322 0.56107 -0.03900
C 	C 	0.53887 0.23973 0.57247 -0.03000
C 	C 	0.57414 0.30287 0.60004 0.01000
C 	C 	0.55879 0.33903 0.62025 -0.03100
C 	C 	0.50715 0.31244 0.60936 -0.04500
H 	H 	0.84716 0.30430 0.61030 0.04500
H 	H 	0.82472 0.36763 0.65445 0.05600
H 	H 	0.73102 0.36395 0.49998 0.05100
H 	H 	0.74960 0.29667 0.45465 0.04200
H 	H 	0.73706 0.52149 0.51827 0.04100
H 	H 	0.70433 0.43614 0.53573 0.05200
H 	H 	0.86924 0.50944 0.67017 0.05700
H 	H 	0.90192 0.59500 0.65261 0.04600
H 	H 	0.67772 0.38914 0.69126 0.03900
H 	H 	0.76041 0.43745 0.69392 0.05700
H 	H 	0.66406 0.32767 0.51613 0.05200
H 	H 	0.58181 0.28044 0.51338 0.04200
H 	H 	0.91293 0.64509 0.51193 0.05700
H 	H 	0.87876 0.56993 0.53976 0.04600
H 	H 	0.81010 0.65758 0.59062 0.03900
H 	H 	0.84436 0.73287 0.56267 0.04500
H 	H 	0.87576 0.26565 0.43556 0.05400
H 	H 	0.83980 0.31743 0.46915 0.04400
H 	H 	0.79519 0.19511 0.53140 0.05400
H 	H 	0.83530 0.14674 0.50193 0.08600
H 	H 	0.45911 0.16458 0.53741 0.07100
H 	H 	0.55083 0.21132 0.55794 0.04700
H 	H 	0.58590 0.38775 0.64225 0.04500
H 	H 	0.49485 0.34078 0.62323 0.05900
C 	C 	0.32090 0.80892 0.00879 0.00400
C 	C 	0.37178 0.83824 0.05955 -0.02300
C 	C 	0.40606 0.81785 0.06493 -0.06800
C 	C 	0.38979 0.76798 0.01977 0.08600
C 	C 	0.33935 0.73970 0.96837 -0.07200
C 	C 	0.30525 0.76024 0.96299 -0.02400
N 	N 	0.42309 0.74370 0.02790 -0.14500
C 	C 	0.32978 0.55596 0.97358 -0.00900
C 	C 	0.34164 0.57520 0.93939 -0.01700
C 	C 	0.37376 0.63676 0.95752 -0.07700
C 	C 	0.39442 0.67986 0.01032 0.08900
C 	C 	0.38388 0.66030 0.04501 -0.07000
C 	C 	0.35164 0.59874 0.02674 -0.01200
C 	C 	0.53993 0.80696 0.99280 -0.01000
C 	C 	0.55508 0.80677 0.04349 -0.01300
C 	C 	0.51641 0.78596 0.05461 -0.07200
C 	C 	0.46248 0.76622 0.01583 0.09000
C 	C 	0.44775 0.76872 0.96593 -0.07900
C 	C 	0.48612 0.78819 0.95425 -0.01600
C 	C 	0.21845 0.37156 0.91963 0.04100
C 	C 	0.20111 0.40018 0.89021 -0.03300
C 	C 	0.23787 0.45988 0.90680 -0.03200
C 	C 	0.29233 0.49127 0.95276 0.01800
C 	C 	0.31010 0.46177 0.98078 -0.03800
C 	C 	0.27328 0.40214 0.96426 -0.03400
C 	C 	0.20628 0.85828 0.98170 0.04100
C 	C 	0.19382 0.80228 0.97933 -0.03700
C 	C 	0.23213 0.78712 0.99045 -0.03300
C 	C 	0.28319 0.82784 0.00393 0.01500
C 	C 	0.29675 0.88516 0.00930 -0.02300
C 	C 	0.25848 0.90044 0.99846 -0.04200
C 	C 	0.65159 0.85243 0.94811 0.04000
C 	C 	0.62305 0.88047 0.94430 -0.04100
C 	C 	0.58756 0.86672 0.96007 -0.03500
C 	C 	0.57974 0.82415 0.97904 0.01400
C 	C 	0.60901 0.79685 0.98360 -0.03300
C 	C 	0.64536 0.81163 0.96902 -0.03500
H 	H 	0.38431 0.87602 0.09509 0.04000
H 	H 	0.44476 0.83986 0.10458 0.05500
H 	H 	0.32624 0.70136 0.93298 0.05300
H 	H 	0.26631 0.73781 0.92342 0.04900
H 	H 	0.32517 0.54247 0.89838 0.04000
H 	H 	0.38090 0.65075 0.92986 0.05500
H 	H 	0.39963 0.69301 0.08565 0.05800
H 	H 	0.34268 0.58433 0.05344 0.04600
H 	H 	0.59667 0.82214 0.07400 0.03900
H 	H 	0.52827 0.78499 0.09339 0.05800
H 	H 	0.40638 0.75361 0.93542 0.05400
H 	H 	0.47379 0.78765 0.91480 0.04100
H 	H 	0.15886 0.37677 0.85558 0.06100
H 	H 	0.22376 0.48223 0.88487 0.04900
H 	H 	0.35215 0.48543 0.01597 0.05200
H 	H 	0.28701 0.38021 0.98702 0.05900
H 	H 	0.15374 0.76964 0.96680 0.05700
H 	H 	0.22162 0.74312 0.98707 0.04800
H 	H 	0.33622 0.91708 0.02009 0.04500
H 	H 	0.26853 0.94395 0.00071 0.06200
H 	H 	0.62804 0.91249 0.92874 0.04800
H 	H 	0.56588 0.88880 0.95719 0.04100
H 	H 	0.60314 0.76370 0.99785 0.04600
H 	H 	0.66790 0.79050 0.97292 0.05600
C 	C 	0.43075 0.92524 0.57103 -0.01600
C 	C 	0.45640 0.92333 0.62073 -0.02100
C 	C 	0.49129 0.90325 0.63073 -0.07000
C 	C 	0.50123 0.88527 0.59144 0.08000
C 	C 	0.47599 0.88792 0.54184 -0.07300
C 	C 	0.44145 0.90843 0.53207 -0.01800
N 	N 	0.53402 0.86015 0.60065 -0.13500
C 	C 	0.43068 0.67479 0.54744 0.00000
C 	C 	0.42393 0.69481 0.50795 -0.02100
C 	C 	0.45910 0.75524 0.52482 -0.07000
C 	C 	0.50143 0.79627 0.58154 0.08500
C 	C 	0.50910 0.77565 0.62058 -0.06300
C 	C 	0.47391 0.71524 0.60369 -0.02100
C 	C 	0.65511 0.92436 0.57013 0.01400
C 	C 	0.62359 0.86282 0.55276 -0.02400
C 	C 	0.58333 0.84107 0.56172 -0.05100
C 	C 	0.57294 0.88077 0.58701 0.08300
C 	C 	0.60583 0.94283 0.60541 -0.04800
C 	C 	0.64637 0.96430 0.59679 -0.05200
C 	C 	0.32056 0.49322 0.50208 0.04600
C 	C 	0.32318 0.54122 0.53524 -0.03500
C 	C 	0.35840 0.60036 0.54920 -0.02900
C 	C 	0.39144 0.61202 0.53023 0.01300
C 	C 	0.38798 0.56387 0.49607 -0.02900
C 	C 	0.35273 0.50468 0.48214 -0.03800
C 	C 	0.31098 0.96857 0.53179 0.00100
C 	C 	0.29684 0.91231 0.49718 -0.01500
C 	C 	0.33586 0.89810 0.51020 -0.05200
C 	C 	0.38950 0.94023 0.55779 0.04000
C 	C 	0.40349 0.99635 0.59277 -0.10100
C 	C 	0.36422 0.01026 0.58001 0.03400
C 	C 	0.77463 0.97666 0.53656 0.04800
C 	C 	0.78953 0.98211 0.58903 -0.04600
C 	C 	0.75094 0.96721 0.60080 -0.03100
C 	C 	0.69723 0.94682 0.56022 0.00200
C 	C 	0.68296 0.94397 0.50870 -0.03000
C 	C 	0.72153 0.95887 0.49692 -0.04800
H 	H 	0.44815 0.93583 0.65092 0.03400
H 	H 	0.50888 0.89925 0.66796 0.05500
H 	H 	0.48287 0.87373 0.51086 0.05100
H 	H 	0.42209 0.91008 0.49370 0.04000
H 	H 	0.39098 0.66380 0.46437 0.04500
H 	H 	0.45359 0.77017 0.49403 0.05200
H 	H 	0.54155 0.80689 0.66424 0.07100
H 	H 	0.47976 0.70006 0.63441 0.04900
H 	H 	0.63077 0.83184 0.53289 0.04300
H 	H 	0.56132 0.79382 0.54999 0.05800
H 	H 	0.60002 0.97443 0.62659 0.04600
H 	H 	0.67109 0.01208 0.61100 0.06400
H 	H 	0.29859 0.53278 0.55094 0.06100
H 	H 	0.36048 0.63718 0.57524 0.04800
H 	H 	0.41323 0.57239 0.48114 0.04700
H 	H 	0.35109 0.46789 0.45666 0.05900
H 	H 	0.25569 0.87978 0.46002 0.05100
H 	H 	0.32446 0.85439 0.48331 0.05200
H 	H 	0.44471 0.02920 0.62951 0.07300
H 	H 	0.37519 0.05345 0.60733 0.05600
H 	H 	0.83051 0.99623 0.62005 0.04800
H 	H 	0.76239 0.96993 0.64085 0.04300
H 	H 	0.64165 0.92862 0.47726 0.04100
H 	H 	0.70967 0.95464 0.45635 0.05700
Zn	Zn	0.07543 0.06861 0.94672 1.19500
Zn	Zn	0.98725 0.00958 0.82431 1.20200
O 	O 	0.99027 0.90456 0.75342 -0.45600
O 	O 	0.96671 0.97255 0.74643 -0.44800
O 	O 	0.98448 0.84478 0.83784 -0.49700
C 	C 	0.13189 0.03955 0.90914 0.33700
O 	O 	0.93844 0.92949 0.81024 -0.88100
C 	C 	0.08049 0.14103 0.88916 0.35100
O 	O 	0.13754 0.06708 0.95489 -0.42400
O 	O 	0.08307 0.00361 0.86216 -0.34100
O 	O 	0.00191 0.02856 0.90051 -0.75300
O 	O 	0.02924 0.93368 0.91456 -0.44100
O 	O 	0.04136 0.09105 0.84082 -0.41300
O 	O 	0.09322 0.14146 0.93672 -0.43200
Zn	Zn	0.83789 0.84360 0.83538 1.18200
Zn	Zn	0.92956 0.88687 0.94549 1.19300
Zn	Zn	0.95560 0.94810 0.88329 1.21500
C 	C 	0.83835 0.75805 0.88023 0.34600
C 	C 	0.80575 0.89361 0.89523 0.34400
O 	O 	0.88225 0.96441 0.85025 -0.49100
Zn	Zn	0.93373 0.99723 0.96829 1.19900
O 	O 	0.88455 0.80249 0.92863 -0.44200
O 	O 	0.80967 0.76883 0.84214 -0.43800
O 	O 	0.79175 0.86702 0.84464 -0.46800
O 	O 	0.85395 0.91191 0.93771 -0.47200
C 	C 	0.96868 0.97361 0.06157 0.30200
O 	O 	0.90845 0.86827 0.86669 -0.78100
C 	C 	0.87522 0.00418 0.87430 0.36500
O 	O 	0.95684 0.92158 0.02814 -0.41500
O 	O 	0.96230 0.01158 0.04401 -0.42500
O 	O 	0.89912 0.02868 0.92810 -0.43900
O 	O 	0.97136 0.96633 0.95546 -0.91100
Zn	Zn	0.95719 0.87530 0.79061 1.18900
C 	C 	0.98394 0.93987 0.73201 0.30000
C 	C 	0.02530 0.88389 0.88994 0.36400
H 	H 	0.01053 0.98935 0.98623 0.18800
H 	H 	0.89971 0.91303 0.78229 0.15400
Zn	Zn	0.18234 0.18690 0.53216 1.19400
Zn	Zn	0.09287 0.13095 0.40631 1.19700
O 	O 	0.07695 0.02796 0.31468 -0.46900
O 	O 	0.06061 0.10260 0.32377 -0.42000
O 	O 	0.09347 0.96493 0.39887 -0.51400
C 	C 	0.25248 0.16767 0.51015 0.33400
O 	O 	0.04106 0.04955 0.38811 -0.86800
C 	C 	0.19092 0.26118 0.47670 0.35000
O 	O 	0.24945 0.19143 0.55051 -0.43400
O 	O 	0.20876 0.13500 0.45858 -0.30500
O 	O 	0.10903 0.14302 0.48259 -0.76100
O 	O 	0.13871 0.04942 0.47969 -0.46300
O 	O 	0.15115 0.21291 0.42712 -0.43400
O 	O 	0.19896 0.26016 0.52268 -0.42500
Zn	Zn	0.94922 0.94213 0.41276 1.17800
Zn	Zn	0.05597 0.98400 0.51570 1.20100
Zn	Zn	0.06443 0.05981 0.46115 1.22100
C 	C 	0.96432 0.86436 0.46744 0.31400
C 	C 	0.92313 0.99065 0.47872 0.32300
O 	O 	0.99401 0.07953 0.44925 -0.43600
Zn	Zn	0.05369 0.09165 0.56088 1.20600
O 	O 	0.01712 0.89792 0.49190 -0.42200
O 	O 	0.93066 0.87316 0.43148 -0.40300
O 	O 	0.90465 0.96448 0.42638 -0.45200
O 	O 	0.97062 0.00267 0.51678 -0.45000
C 	C 	0.07623 0.03182 0.62620 0.29600
O 	O 	0.02034 0.97553 0.43822 -0.79900
C 	C 	0.99609 0.12018 0.48541 0.32700
O 	O 	0.08832 0.00487 0.59661 -0.40700
O 	O 	0.07782 0.08105 0.62747 -0.43600
O 	O 	0.02300 0.13420 0.53806 -0.45800
O 	O 	0.08833 0.06824 0.53384 -0.87500
Zn	Zn	0.05769 0.99666 0.35923 1.17700
C 	C 	0.05819 0.05721 0.29307 0.29200
C 	C 	0.13439 0.00118 0.45136 0.40300
H 	H 	0.12843 0.09271 0.56109 0.16300
H 	H 	0.00238 0.03567 0.36388 0.17000
C 	C 	0.00627 0.95181 0.70049 -0.04000
C 	C 	0.97256 0.93916 0.64531 0.04900
C 	C 	0.99634 0.96594 0.62175 -0.06300
C 	C 	0.05309 0.00189 0.65118 -0.04300
C 	C 	0.08666 0.00791 0.70354 0.07500
C 	C 	0.06280 0.98297 0.72797 -0.02900
H 	H 	0.97056 0.95753 0.57989 0.05400
H 	H 	0.08839 0.98939 0.76910 0.06900
C 	C 	0.91137 0.89557 0.61043 -0.06600
C 	C 	0.14721 0.03695 0.73196 -0.03500
C 	C 	0.88314 0.92905 0.60935 -0.14000
H 	H 	0.89960 0.86337 0.62577 0.04300
H 	H 	0.89615 0.86781 0.56707 0.06100
H 	H 	0.89322 0.95256 0.65109 0.06400
H 	H 	0.83835 0.89636 0.57984 0.06000
H 	H 	0.89580 0.96275 0.59573 0.06900
C 	C 	0.15890 0.99061 0.71212 -0.20400
H 	H 	0.16861 0.05639 0.77772 0.06200
H 	H 	0.16474 0.07505 0.72457 0.05300
H 	H 	0.14227 0.95273 0.72011 0.11100
H 	H 	0.20353 0.01218 0.73480 0.10600
H 	H 	0.14033 0.97237 0.66695 0.09900
C 	C 	0.03471 0.03905 0.23412 -0.03600
C 	C 	0.06725 0.06621 0.21733 0.02500
C 	C 	0.04588 0.04150 0.16065 0.03200
C 	C 	0.99223 0.99131 0.12052 -0.12500
C 	C 	0.95960 0.96423 0.13734 0.07100
C 	C 	0.98110 0.98885 0.19407 -0.08100
H 	H 	0.07076 0.06217 0.14760 0.03400
H 	H 	0.95627 0.96825 0.20719 0.02200
C 	C 	0.12526 0.12074 0.25947 -0.05500
C 	C 	0.90116 0.91050 0.09516 -0.08000
C 	C 	0.16545 0.10185 0.27846 -0.15200
H 	H 	0.13017 0.14967 0.29618 0.06600
H 	H 	0.13588 0.14946 0.24080 0.05200
H 	H 	0.15776 0.07555 0.29986 0.09000
H 	H 	0.20760 0.14266 0.30796 0.09100
H 	H 	0.16202 0.07414 0.24232 0.07700
C 	C 	0.86226 0.93058 0.07373 -0.14000
H 	H 	0.88898 0.88332 0.11438 0.04400
H 	H 	0.89642 0.87966 0.05965 0.06500
H 	H 	0.86435 0.95873 0.10852 0.06200
H 	H 	0.81990 0.89036 0.04277 0.06700
H 	H 	0.87263 0.95689 0.05331 0.08600
C 	C 	0.28766 0.43174 0.49225 -0.00700
C 	C 	0.23107 0.39482 0.45091 0.13900
C 	C 	0.19997 0.33840 0.44504 -0.02100
C 	C 	0.22485 0.31849 0.48038 -0.10700
C 	C 	0.28191 0.35472 0.52045 0.20800
C 	C 	0.31282 0.41099 0.52617 -0.09600
H 	H 	0.15629 0.31065 0.41380 0.07600
H 	H 	0.35649 0.43897 0.55751 0.08600
Cl	Cl	0.19863 0.41880 0.40634 -0.30900
Cl	Cl	0.31560 0.32984 0.56297 -0.32100
C 	C 	0.81196 0.98111 0.52043 -0.03300
C 	C 	0.85772 0.03747 0.54080 0.15700
C 	C 	0.89356 0.04026 0.52642 -0.01300
C 	C 	0.88457 0.98714 0.49255 -0.13600
C 	C 	0.83942 0.93076 0.47328 0.20000
C 	C 	0.80275 0.92814 0.48612 -0.09800
H 	H 	0.92847 0.08370 0.54177 0.06100
H 	H 	0.76813 0.88467 0.47120 0.07900
Cl	Cl	0.87096 0.10475 0.58478 -0.32800
Cl	Cl	0.83047 0.86295 0.43659 -0.32600
C 	C 	0.18124 0.99581 0.47449 -0.18900
C 	C 	0.19307 0.97679 0.51491 0.22400
C 	C 	0.23718 0.97051 0.53542 -0.11500
C 	C 	0.27020 0.98416 0.51660 -0.00800
C 	C 	0.26038 0.00686 0.47885 0.14000
C 	C 	0.21547 0.01159 0.45726 0.01600
H 	H 	0.24510 0.95381 0.56509 0.08500
H 	H 	0.20731 0.02778 0.42722 0.06100
Cl	Cl	0.15233 0.95953 0.53935 -0.41100
Cl	Cl	0.30435 0.02999 0.45871 -0.30900
C 	C 	0.17847 0.31153 0.90671 -0.00500
C 	C 	0.14888 0.30589 0.92973 0.14100
C 	C 	0.11469 0.24932 0.92125 -0.02000
C 	C 	0.10980 0.19801 0.89010 -0.10600
C 	C 	0.13790 0.20331 0.86530 0.21200
C 	C 	0.17207 0.26000 0.87375 -0.09500
H 	H 	0.09287 0.24546 0.94005 0.07700
H 	H 	0.19460 0.26418 0.85574 0.08200
Cl	Cl	0.15565 0.36974 0.97085 -0.31000
Cl	Cl	0.13294 0.13999 0.82592 -0.32400
C 	C 	0.68767 0.86527 0.92971 -0.01400
C 	C 	0.67534 0.81973 0.88369 0.13600
C 	C 	0.71330 0.83013 0.87130 -0.02500
C 	C 	0.76306 0.88633 0.90350 -0.11700
C 	C 	0.77309 0.93360 0.94619 0.18000
C 	C 	0.73595 0.92255 0.95984 -0.09800
H 	H 	0.70462 0.79399 0.83742 0.07400
H 	H 	0.74483 0.95836 0.99417 0.07300
Cl	Cl	0.61214 0.74972 0.84074 -0.32300
Cl	Cl	0.83050 0.00743 0.98092 -0.32900
C 	C 	0.07313 0.88010 0.91503 -0.13600
C 	C 	0.09966 0.88888 0.96974 0.20800
C 	C 	0.14443 0.88372 0.99199 -0.10800
C 	C 	0.16278 0.86958 0.95998 -0.00500
C 	C 	0.13668 0.86169 0.90564 0.13000
C 	C 	0.09229 0.86716 0.88357 -0.01700
H 	H 	0.16422 0.88946 0.03373 0.08700
H 	H 	0.07242 0.86105 0.84169 0.06400
Cl	Cl	0.07568 0.90330 0.00983 -0.37000
Cl	Cl	0.15803 0.84281 0.86396 -0.29600
C 	C 	0.89182 0.18210 0.45915 -0.00900
C 	C 	0.86924 0.12018 0.42842 0.13900
C 	C 	0.90354 0.10017 0.43190 -0.03100
C 	C 	0.96018 0.14150 0.46563 -0.11900
C 	C 	0.98184 0.20369 0.49030 0.19000
C 	C 	0.94784 0.22374 0.48760 -0.09400
H 	H 	0.88635 0.05229 0.41088 0.07400
H 	H 	0.96534 0.27160 0.50977 0.08100
Cl	Cl	0.79829 0.06732 0.38568 -0.31400
Cl	Cl	0.05203 0.25696 0.52653 -0.33300
C 	C 	0.90130 0.73862 0.51848 -0.01500
C 	C 	0.95217 0.79372 0.55736 0.14400
C 	C 	0.97293 0.83355 0.53990 -0.05300
C 	C 	0.94307 0.81938 0.48382 -0.09500
C 	C 	0.89247 0.76356 0.44467 0.20400
C 	C 	0.87163 0.72396 0.46236 -0.09300
H 	H 	0.01223 0.87580 0.57011 0.08600
H 	H 	0.83292 0.68099 0.43217 0.08500
Cl	Cl	0.99072 0.81307 0.62804 -0.33600
Cl	Cl	0.85679 0.74029 0.37296 -0.31600
C 	C 	0.41276 0.22260 0.55695 -0.00700
C 	C 	0.39199 0.19407 0.58199 0.15000
C 	C 	0.33858 0.17373 0.56467 -0.02100
C 	C 	0.30555 0.18152 0.52236 -0.09800
C 	C 	0.32558 0.20742 0.49545 0.21100
C 	C 	0.37894 0.22772 0.51286 -0.08900
H 	H 	0.32297 0.15259 0.58462 0.07100
H 	H 	0.39460 0.24884 0.49293 0.08600
Cl	Cl	0.43275 0.18460 0.63577 -0.34600
Cl	Cl	0.28543 0.21777 0.44188 -0.31800
C 	C 	0.73667 0.01070 0.78431 0.00800
C 	C 	0.73517 0.95798 0.76320 0.11900
C 	C 	0.78197 0.95752 0.79058 -0.03800
C 	C 	0.83034 0.00917 0.83945 -0.11000
C 	C 	0.83321 0.06351 0.85712 0.21000
C 	C 	0.78633 0.06389 0.82990 -0.09900
H 	H 	0.78012 0.91626 0.77502 0.05000
H 	H 	0.78809 0.10513 0.84528 0.08700
Cl	Cl	0.67471 0.89187 0.70321 -0.34500
Cl	Cl	0.89555 0.13185 0.91186 -0.32200
C 	C 	0.75322 0.57500 0.84424 -0.00700
C 	C 	0.77884 0.62208 0.89722 0.13500
C 	C 	0.80913 0.68215 0.90994 -0.02100
C 	C 	0.81516 0.69567 0.87068 -0.11800
C 	C 	0.79360 0.64845 0.81967 0.20600
C 	C 	0.76207 0.58850 0.80636 -0.10100
H 	H 	0.82673 0.71826 0.94976 0.07000
H 	H 	0.74406 0.55236 0.76635 0.07900
Cl	Cl	0.77414 0.60642 0.94832 -0.32400
Cl	Cl	0.80716 0.66382 0.77279 -0.36600
C 	C 	0.17992 0.05392 0.90883 -0.11300
C 	C 	0.22195 0.11436 0.93209 0.20900
C 	C 	0.26204 0.12688 0.92261 -0.09600
C 	C 	0.26071 0.07986 0.88997 -0.01300
C 	C 	0.22001 0.01957 0.86848 0.14500
C 	C 	0.17995 0.00693 0.87800 -0.00300
H 	H 	0.29364 0.17333 0.93963 0.08400
H 	H 	0.14762 0.96049 0.85966 0.06200
Cl	Cl	0.22349 0.17509 0.97060 -0.32000
Cl	Cl	0.21755 0.95939 0.82787 -0.32400
