# Generated by REPEAT Assigner based on pymatgen
data_DB6-cuf_3664
_audit_creation_date              2025-01-14
_audit_creation_method            REPEAT_Assigner
_cell_length_a                    15.995300
_cell_length_b                    15.625200
_cell_length_c                    14.586300
_cell_angle_alpha                 108.081000
_cell_angle_beta                  90.015200
_cell_angle_gamma                 83.873500
_cell_volume                      3443.653097
_symmetry_space_group_name_H-M    P1
_symmetry_Int_Tables_number       1
loop_
    _symmetry_equiv_pos_site_id
    _symmetry_equiv_pos_as_xyz
    1  x,y,z
loop_
    _atom_site_type_symbol
    _atom_site_label
    _atom_site_fract_x
    _atom_site_fract_y
    _atom_site_fract_z
    _atom_type_partial_charge
    Cu  Cu1  0.186890  0.212580  0.997410  0.801538
    Cu  Cu2  0.186920  0.212580  0.177740  0.827098
    C   C1   0.603130  0.210990  0.087050  -0.112092
    C   C2   0.638450  0.212000  0.986950  0.218783
    C   C3   0.735170  0.213500  0.987380  0.243544
    C   C4   0.770690  0.214170  0.088100  -0.092241
    C   C5   0.745960  0.127470  0.109150  0.231416
    C   C6   0.649250  0.125560  0.107870  0.230924
    C   C7   0.628530  0.296900  0.166900  0.218777
    C   C8   0.725110  0.299870  0.166000  0.236115
    C   C9   0.865390  0.215970  0.088690  0.026374
    C   C10  0.508430  0.209190  0.086460  0.069336
    F   F1   0.617270  0.137550  0.913840  -0.244554
    F   F2   0.619700  0.119860  0.194940  -0.242268
    F   F3   0.744630  0.378290  0.149100  -0.248368
    F   F4   0.774100  0.139520  0.915060  -0.250387
    F   F5   0.588030  0.374960  0.153740  -0.241843
    F   F6   0.776120  0.124680  0.197580  -0.250722
    H   H1   0.751480  0.275620  0.968900  0.061549
    H   H2   0.607760  0.273260  0.967880  0.062776
    H   H3   0.634420  0.060820  0.050900  0.064228
    H   H4   0.777880  0.063900  0.053380  0.062129
    H   H5   0.748660  0.305530  0.241200  0.062844
    H   H6   0.605590  0.297040  0.240940  0.065139
    C   C11  0.033830  0.219180  0.089750  0.813637
    C   C12  0.940880  0.217400  0.089160  -0.297290
    O   O1   0.065010  0.219770  0.010130  -0.542796
    O   O2   0.065040  0.219770  0.169780  -0.552585
    C   C13  0.339990  0.205990  0.085400  0.866236
    C   C14  0.432940  0.207760  0.085990  -0.346562
    O   O3   0.308840  0.205120  0.164930  -0.550256
    O   O4   0.308750  0.205660  0.005460  -0.554132
    C   C15  0.185280  0.618540  0.305670  -0.170463
    C   C16  0.183610  0.524500  0.274380  -0.143950
    C   C17  0.183580  0.524510  0.108160  0.207239
    C   C18  0.185260  0.618550  0.139430  -0.025963
    C   C19  0.186100  0.665560  0.238180  0.020277
    C   C20  0.186080  0.665570  0.071940  0.072055
    C   C21  0.187750  0.759600  0.103210  0.042054
    C   C22  0.188590  0.806620  0.201960  -0.301089
    C   C23  0.187770  0.759590  0.269450  0.271257
    C   C24  0.185230  0.618550  0.973190  -0.320806
    C   C25  0.186050  0.665570  0.905700  0.275918
    C   C26  0.187720  0.759610  0.936970  0.009065
    C   C27  0.188570  0.806620  0.035720  0.000118
    C   C28  0.188540  0.806630  0.869480  -0.166397
    C   C29  0.190210  0.900660  0.900740  -0.150975
    C   C30  0.190230  0.900660  0.066980  0.177120
    F   F7   0.185090  0.806840  0.365170  -0.189497
    F   F8   0.181680  0.619320  0.810370  -0.190955
    F   F9   0.207710  0.466500  0.019740  -0.124052
    F   F10  0.216300  0.951590  0.153050  -0.101436
    H   H7   0.189940  0.883190  0.227410  0.173577
    H   H8   0.185970  0.656810  0.386080  0.138751
    H   H9   0.182940  0.486220  0.329350  0.134125
    H   H10  0.183860  0.541990  0.947730  0.185408
    H   H11  0.187850  0.768350  0.789070  0.138337
    H   H12  0.190880  0.938950  0.845790  0.136150
    C   C31  0.192830  0.047760  0.032770  0.518076
    C   C32  0.191050  0.947670  0.999500  -0.036600
    O   O5   0.193440  0.081340  0.123770  -0.456694
    O   O6   0.193410  0.081340  0.964110  -0.484360
    C   C33  0.180990  0.377410  0.142380  0.516295
    C   C34  0.182760  0.477490  0.175650  -0.051509
    O   O7   0.180380  0.343830  0.051380  -0.442373
    O   O8   0.180410  0.343820  0.211040  -0.486468
    C   C35  0.130170  0.273990  0.655960  0.312937
    C   C36  0.130180  0.274000  0.559980  -0.265425
    C   C37  0.243650  0.151170  0.519190  0.313113
    C   C38  0.243650  0.151170  0.615170  -0.269249
    C   C39  0.186900  0.212580  0.683560  0.009963
    C   C40  0.186920  0.212580  0.491590  0.003950
    C   C41  0.186930  0.212580  0.387530  0.201920
    C   C42  0.186890  0.212580  0.787630  0.198297
    F   F11  0.074880  0.333840  0.721580  -0.159992
    F   F12  0.299270  0.090970  0.454210  -0.154814
    H   H13  0.083990  0.324010  0.537530  0.211470
    H   H14  0.289840  0.101150  0.637630  0.212624
    N   N1   0.186880  0.212590  0.870580  -0.206685
    N   N2   0.186940  0.212580  0.304570  -0.216689
