# Generated by REPEAT Assigner based on pymatgen
data_DB7-ddmof_18600
_audit_creation_date              2022-05-30
_audit_creation_method            REPEAT_Assigner
_cell_length_a                    32.717840
_cell_length_b                    27.367890
_cell_length_c                    30.475610
_cell_angle_alpha                 103.624490
_cell_angle_beta                  115.744390
_cell_angle_gamma                 112.422890
_cell_volume                      19909.242935
_symmetry_space_group_name_H-M    P1
_symmetry_Int_Tables_number       1
loop_
    _symmetry_equiv_pos_site_id
    _symmetry_equiv_pos_as_xyz
    1  x,y,z
loop_
    _atom_site_type_symbol
    _atom_site_label
    _atom_site_fract_x
    _atom_site_fract_y
    _atom_site_fract_z
    _atom_type_partial_charge
    C   C1    0.583420  0.062630  0.773240  -0.049820
    C   C2    0.597310  0.083130  0.827520  -0.111868
    C   C3    0.584250  0.122170  0.846900  -0.281176
    C   C4    0.557660  0.141560  0.812590  0.519665
    C   C5    0.538840  0.116340  0.756510  -0.498269
    C   C6    0.551830  0.077090  0.737000  0.066799
    N   N1    0.556480  0.192390  0.837090  -0.554912
    C   C7    0.628020  0.341100  0.814190  0.020582
    C   C8    0.571520  0.298450  0.777770  -0.087928
    C   C9    0.547520  0.249630  0.785350  -0.339602
    C   C10   0.580060  0.242690  0.828940  0.443264
    C   C11   0.636440  0.284740  0.864560  -0.298122
    C   C12   0.660300  0.333860  0.857520  -0.072746
    C   C13   0.423010  0.147070  0.847220  0.108157
    C   C14   0.475230  0.197110  0.891790  -0.187328
    C   C15   0.518420  0.213680  0.887010  -0.214537
    C   C16   0.509990  0.180250  0.837840  0.367049
    C   C17   0.456900  0.132270  0.791840  -0.336377
    C   C18   0.413620  0.115650  0.796700  -0.133444
    C   C19   0.716490  0.511750  0.827880  0.047346
    C   C20   0.730940  0.470260  0.818710  -0.129797
    C   C21   0.699060  0.412160  0.809080  -0.135916
    C   C22   0.653120  0.395590  0.809680  0.066980
    C   C23   0.636290  0.435520  0.814300  -0.090713
    C   C24   0.667590  0.493180  0.822780  -0.173164
    C   C25   0.686030  0.009190  0.763560  0.147079
    C   C26   0.680190  0.049600  0.744470  -0.056846
    C   C27   0.642090  0.062590  0.741760  -0.200578
    C   C28   0.609430  0.035030  0.757960  0.130862
    C   C29   0.610510  0.988910  0.770020  -0.067352
    C   C30   0.648980  0.976390  0.773280  -0.265194
    C   C31   0.300720  0.094240  0.876720  -0.005820
    C   C32   0.342060  0.083990  0.900450  -0.184044
    C   C33   0.380930  0.099360  0.889200  -0.156847
    C   C34   0.379110  0.125720  0.854650  0.112297
    C   C35   0.337660  0.135730  0.830720  -0.224982
    C   C36   0.298890  0.120550  0.842110  0.027072
    H   H1    0.621290  0.071920  0.855820  0.110360
    H   H2    0.597880  0.140510  0.889780  0.145824
    H   H3    0.516530  0.129330  0.728960  0.231561
    H   H4    0.540020  0.060650  0.694730  0.062832
    H   H5    0.546260  0.303450  0.744020  0.096605
    H   H6    0.503950  0.217120  0.757310  0.194384
    H   H7    0.661670  0.279510  0.898090  0.144465
    H   H8    0.703830  0.366900  0.886310  0.106232
    H   H9    0.482580  0.222180  0.930640  0.131039
    H   H10   0.559020  0.251160  0.922300  0.130691
    H   H11   0.449290  0.107570  0.752810  0.172812
    H   H12   0.373120  0.077600  0.761710  0.112265
    H   H13   0.767680  0.483580  0.820690  0.110801
    H   H14   0.711440  0.380980  0.803770  0.100327
    H   H15   0.600470  0.422940  0.813990  0.106895
    H   H16   0.655110  0.524310  0.827770  0.118448
    H   H17   0.707540  0.073800  0.735230  0.086875
    H   H18   0.640810  0.097280  0.731070  0.113056
    H   H19   0.584040  0.965670  0.780530  0.101165
    H   H20   0.652530  0.944310  0.787170  0.127797
    H   H21   0.344240  0.064510  0.927850  0.120497
    H   H22   0.413000  0.091740  0.908040  0.120347
    H   H23   0.336250  0.156500  0.804350  0.114175
    H   H24   0.267860  0.129900  0.824650  0.042759
    C   C37   0.799940  0.295950  0.529300  0.070624
    C   C38   0.820590  0.315860  0.585690  -0.150462
    C   C39   0.808140  0.352020  0.610840  -0.261654
    C   C40   0.775960  0.369820  0.580450  0.421043
    C   C41   0.755170  0.349850  0.523880  -0.246612
    C   C42   0.766320  0.312260  0.498310  -0.163917
    N   N2    0.767970  0.411820  0.608680  -0.524202
    C   C43   0.821820  0.563540  0.583650  0.074834
    C   C44   0.765900  0.519480  0.552010  -0.148777
    C   C45   0.747300  0.471040  0.562020  -0.261315
    C   C46   0.784760  0.466160  0.603760  0.350599
    C   C47   0.840220  0.512400  0.637570  -0.249942
    C   C48   0.858710  0.560760  0.627520  -0.105883
    C   C49   0.624100  0.330840  0.602200  0.101195
    C   C50   0.674680  0.375680  0.653000  -0.197531
    C   C51   0.721520  0.403130  0.654520  -0.182843
    C   C52   0.718470  0.385650  0.605510  0.345543
    C   C53   0.667620  0.340840  0.554540  -0.289615
    C   C54   0.620800  0.314010  0.552980  -0.120199
    C   C55   0.880920  0.693990  0.535360  0.251780
    C   C56   0.890510  0.647920  0.529060  -0.221469
    C   C57   0.871260  0.605460  0.544920  -0.128011
    C   C58   0.842180  0.608670  0.567180  0.066287
    C   C59   0.832450  0.654710  0.573400  -0.131646
    C   C60   0.851810  0.697300  0.557560  -0.287553
    C   C61   0.858760  0.203110  0.467070  0.072082
    C   C62   0.858010  0.249980  0.456250  -0.178457
    C   C63   0.837360  0.279160  0.475070  -0.139302
    C   C64   0.815830  0.260650  0.503590  0.073429
    C   C65   0.812950  0.210860  0.510760  -0.130395
    C   C66   0.835060  0.182890  0.493400  -0.136818
    C   C67   0.470390  0.249560  0.577970  0.276299
    C   C68   0.487020  0.213220  0.561070  -0.309135
    C   C69   0.538870  0.239730  0.572470  -0.082412
    C   C70   0.574140  0.302870  0.600040  0.007923
    C   C71   0.558790  0.339030  0.620250  -0.104438
    C   C72   0.507150  0.312440  0.609360  -0.213404
    H   H25   0.847160  0.304300  0.610300  0.137772
    H   H26   0.824720  0.367630  0.654450  0.142317
    H   H27   0.731020  0.363950  0.499980  0.149048
    H   H28   0.749600  0.296670  0.454650  0.120244
    H   H29   0.737060  0.521490  0.518270  0.118568
    H   H30   0.704330  0.436140  0.535730  0.149476
    H   H31   0.869240  0.509440  0.670170  0.140496
    H   H32   0.901920  0.595000  0.652610  0.101745
    H   H33   0.677720  0.389140  0.691260  0.143337
    H   H34   0.760410  0.437450  0.693920  0.116504
    H   H35   0.664060  0.327670  0.516130  0.149444
    H   H36   0.581810  0.280440  0.513380  0.117880
    H   H37   0.912930  0.645090  0.511930  0.123925
    H   H38   0.878760  0.569930  0.539760  0.117820
    H   H39   0.810100  0.657580  0.590620  0.122016
    H   H40   0.844360  0.732870  0.562670  0.146189
    H   H41   0.875760  0.265650  0.435560  0.121799
    H   H42   0.839800  0.317430  0.469150  0.118407
    H   H43   0.795190  0.195110  0.531400  0.102243
    H   H44   0.835300  0.146740  0.501930  0.122178
    H   H45   0.459110  0.164580  0.537410  0.170074
    H   H46   0.550830  0.211320  0.557940  0.099513
    H   H47   0.585900  0.387750  0.642250  0.104193
    H   H48   0.494850  0.340780  0.623230  0.108261
    C   C73   0.320900  0.808920  0.008790  0.051450
    C   C74   0.371780  0.838240  0.059550  -0.147395
    C   C75   0.406060  0.817850  0.064930  -0.253230
    C   C76   0.389790  0.767980  0.019770  0.408288
    C   C77   0.339350  0.739700  0.968370  -0.253814
    C   C78   0.305250  0.760240  0.962990  -0.159017
    N   N3    0.423090  0.743700  0.027900  -0.528052
    C   C79   0.329780  0.555960  0.973580  0.032956
    C   C80   0.341640  0.575200  0.939390  -0.141353
    C   C81   0.373760  0.636760  0.957520  -0.251987
    C   C82   0.394420  0.679860  0.010320  0.384147
    C   C83   0.383880  0.660300  0.045010  -0.274847
    C   C84   0.351640  0.598740  0.026740  -0.100384
    C   C85   0.539930  0.806960  0.992800  0.012279
    C   C86   0.555080  0.806770  0.043490  -0.119853
    C   C87   0.516410  0.785960  0.054610  -0.233997
    C   C88   0.462480  0.766220  0.015830  0.359738
    C   C89   0.447750  0.768720  0.965930  -0.279748
    C   C90   0.486120  0.788190  0.954250  -0.097376
    C   C91   0.218450  0.371560  0.919630  0.161220
    C   C92   0.201110  0.400180  0.890210  -0.224756
    C   C93   0.237870  0.459880  0.906800  -0.108344
    C   C94   0.292330  0.491270  0.952760  0.075218
    C   C95   0.310100  0.461770  0.980780  -0.134778
    C   C96   0.273280  0.402140  0.964260  -0.213348
    C   C97   0.206280  0.858280  0.981700  0.089319
    C   C98   0.193820  0.802280  0.979330  -0.167903
    C   C99   0.232130  0.787120  0.990450  -0.178895
    C   C100  0.283190  0.827840  0.003930  0.131611
    C   C101  0.296750  0.885160  0.009300  -0.140800
    C   C102  0.258480  0.900440  0.998460  -0.190051
    C   C103  0.651590  0.852430  0.948110  0.126747
    C   C104  0.623050  0.880470  0.944300  -0.211576
    C   C105  0.587560  0.866720  0.960070  -0.120789
    C   C106  0.579740  0.824150  0.979040  0.088039
    C   C107  0.609010  0.796850  0.983600  -0.100800
    C   C108  0.645360  0.811630  0.969020  -0.226818
    H   H49   0.384310  0.876020  0.095090  0.118922
    H   H50   0.444760  0.839860  0.104580  0.145193
    H   H51   0.326240  0.701360  0.932980  0.150313
    H   H52   0.266310  0.737810  0.923420  0.124871
    H   H53   0.325170  0.542470  0.898380  0.116609
    H   H54   0.380900  0.650750  0.929860  0.144917
    H   H55   0.399630  0.693010  0.085650  0.143545
    H   H56   0.342680  0.584330  0.053440  0.117183
    H   H57   0.596670  0.822140  0.074000  0.112727
    H   H58   0.528270  0.784990  0.093390  0.135886
    H   H59   0.406380  0.753610  0.935420  0.146062
    H   H60   0.473790  0.787650  0.914800  0.109155
    H   H61   0.158860  0.376770  0.855580  0.119012
    H   H62   0.223760  0.482230  0.884870  0.111368
    H   H63   0.352150  0.485430  0.015970  0.115903
    H   H64   0.287010  0.380210  0.987020  0.122383
    H   H65   0.153740  0.769640  0.966800  0.118993
    H   H66   0.221620  0.743120  0.987070  0.130477
    H   H67   0.336220  0.917080  0.020090  0.116824
    H   H68   0.268530  0.943950  0.000710  0.118225
    H   H69   0.628040  0.912490  0.928740  0.129280
    H   H70   0.565880  0.888800  0.957190  0.112637
    H   H71   0.603140  0.763700  0.997850  0.113618
    H   H72   0.667900  0.790500  0.972920  0.133833
    C   C109  0.430750  0.925240  0.571030  0.046211
    C   C110  0.456400  0.923330  0.620730  -0.103531
    C   C111  0.491290  0.903250  0.630730  -0.177759
    C   C112  0.501230  0.885270  0.591440  0.170200
    C   C113  0.475990  0.887920  0.541840  -0.103784
    C   C114  0.441450  0.908430  0.532070  -0.197164
    N   N4    0.534020  0.860150  0.600650  -0.389837
    C   C115  0.430680  0.674790  0.547440  0.075920
    C   C116  0.423930  0.694810  0.507950  -0.126409
    C   C117  0.459100  0.755240  0.524820  -0.298510
    C   C118  0.501430  0.796270  0.581540  0.412008
    C   C119  0.509100  0.775650  0.620580  -0.170094
    C   C120  0.473910  0.715240  0.603690  -0.211487
    C   C121  0.655110  0.924360  0.570130  0.160799
    C   C122  0.623590  0.862820  0.552760  -0.304208
    C   C123  0.583330  0.841070  0.561720  -0.108059
    C   C124  0.572940  0.880770  0.587010  0.311253
    C   C125  0.605830  0.942830  0.605410  -0.224842
    C   C126  0.646370  0.964300  0.596790  -0.254378
    C   C127  0.320560  0.493220  0.502080  0.147430
    C   C128  0.323180  0.541220  0.535240  -0.200249
    C   C129  0.358400  0.600360  0.549200  -0.130389
    C   C130  0.391440  0.612020  0.530230  0.082766
    C   C131  0.387980  0.563870  0.496070  -0.143528
    C   C132  0.352730  0.504680  0.482140  -0.188162
    C   C133  0.310980  0.968570  0.531790  0.128528
    C   C134  0.296840  0.912310  0.497180  -0.185862
    C   C135  0.335860  0.898100  0.510200  -0.158041
    C   C136  0.389500  0.940230  0.557790  0.126568
    C   C137  0.403490  0.996350  0.592770  -0.182585
    C   C138  0.364220  0.010260  0.580010  -0.194994
    C   C139  0.774630  0.976660  0.536560  0.090772
    C   C140  0.789530  0.982110  0.589030  -0.130983
    C   C141  0.750940  0.967210  0.600800  -0.199754
    C   C142  0.697230  0.946820  0.560220  0.142279
    C   C143  0.682960  0.943970  0.508700  -0.164114
    C   C144  0.721530  0.958870  0.496920  -0.188569
    H   H73   0.448150  0.935830  0.650920  0.089694
    H   H74   0.508880  0.899250  0.667960  0.116237
    H   H75   0.482870  0.873730  0.510860  0.089649
    H   H76   0.422090  0.910080  0.493700  0.131342
    H   H77   0.390980  0.663800  0.464370  0.120267
    H   H78   0.453590  0.770170  0.494030  0.147798
    H   H79   0.541550  0.806890  0.664240  0.113404
    H   H80   0.479760  0.700060  0.634410  0.134106
    H   H81   0.630770  0.831840  0.532890  0.143737
    H   H82   0.561320  0.793820  0.549990  0.099187
    H   H83   0.600020  0.974430  0.626590  0.156945
    H   H84   0.671090  0.012080  0.611000  0.131627
    H   H85   0.298590  0.532780  0.550940  0.123006
    H   H86   0.360480  0.637180  0.575240  0.118071
    H   H87   0.413230  0.572390  0.481140  0.116775
    H   H88   0.351090  0.467890  0.456660  0.114645
    H   H89   0.255690  0.879780  0.460020  0.118983
    H   H90   0.324460  0.854390  0.483310  0.122170
    H   H91   0.444710  0.029200  0.629510  0.129216
    H   H92   0.375190  0.053450  0.607330  0.121760
    H   H93   0.830510  0.996230  0.620050  0.104568
    H   H94   0.762390  0.969930  0.640850  0.127092
    H   H95   0.641650  0.928620  0.477260  0.114049
    H   H96   0.709670  0.954640  0.456350  0.127322
    Zn  Zn1   0.075430  0.068610  0.946720  1.171351
    Zn  Zn2   0.987250  0.009580  0.824310  1.360971
    O   O1    0.990270  0.904560  0.753420  -0.690371
    O   O2    0.966710  0.972550  0.746430  -0.591230
    O   O3    0.984480  0.844780  0.837840  -0.705924
    C   C145  0.131890  0.039550  0.909140  0.791501
    O   O4    0.938440  0.929490  0.810240  -1.053347
    C   C146  0.080490  0.141030  0.889160  0.809852
    O   O5    0.137540  0.067080  0.954890  -0.729345
    O   O6    0.083070  0.003610  0.862160  -0.690348
    O   O7    0.001910  0.028560  0.900510  -1.191824
    O   O8    0.029240  0.933680  0.914560  -0.718245
    O   O9    0.041360  0.091050  0.840820  -0.773496
    O   O10   0.093220  0.141460  0.936720  -0.625282
    Zn  Zn3   0.837890  0.843600  0.835380  1.121263
    Zn  Zn4   0.929560  0.886870  0.945490  1.329220
    Zn  Zn5   0.955600  0.948100  0.883290  1.475797
    C   C147  0.838350  0.758050  0.880230  0.823643
    C   C148  0.805750  0.893610  0.895230  0.662531
    O   O11   0.882250  0.964410  0.850250  -0.680284
    Zn  Zn6   0.933730  0.997230  0.968290  1.229397
    O   O12   0.884550  0.802490  0.928630  -0.717456
    O   O13   0.809670  0.768830  0.842140  -0.640744
    O   O14   0.791750  0.867020  0.844640  -0.614962
    O   O15   0.853950  0.911910  0.937710  -0.758243
    C   C149  0.968680  0.973610  0.061570  0.856183
    O   O16   0.908450  0.868270  0.866690  -1.191374
    C   C150  0.875220  0.004180  0.874300  0.627007
    O   O17   0.956840  0.921580  0.028140  -0.619666
    O   O18   0.962300  0.011580  0.044010  -0.701399
    O   O19   0.899120  0.028680  0.928100  -0.556423
    O   O20   0.971360  0.966330  0.955460  -1.188093
    Zn  Zn7   0.957190  0.875300  0.790610  1.213867
    C   C151  0.983940  0.939870  0.732010  0.678161
    C   C152  0.025300  0.883890  0.889940  0.936084
    H   H97   0.010530  0.989350  0.986230  0.415548
    H   H98   0.899710  0.913030  0.782290  0.337703
    Zn  Zn8   0.182340  0.186900  0.532160  1.195130
    Zn  Zn9   0.092870  0.130950  0.406310  1.271631
    O   O21   0.076950  0.027960  0.314680  -0.690392
    O   O22   0.060610  0.102600  0.323770  -0.622028
    O   O23   0.093470  0.964930  0.398870  -0.737989
    C   C153  0.252480  0.167670  0.510150  0.903439
    O   O24   0.041060  0.049550  0.388110  -0.996249
    C   C154  0.190920  0.261180  0.476700  0.640051
    O   O25   0.249450  0.191430  0.550510  -0.773252
    O   O26   0.208760  0.135000  0.458580  -0.743188
    O   O27   0.109030  0.143020  0.482590  -1.168595
    O   O28   0.138710  0.049420  0.479690  -0.804497
    O   O29   0.151150  0.212910  0.427120  -0.639930
    O   O30   0.198960  0.260160  0.522680  -0.611233
    Zn  Zn10  0.949220  0.942130  0.412760  1.118563
    Zn  Zn11  0.055970  0.984000  0.515700  1.338827
    Zn  Zn12  0.064430  0.059810  0.461150  1.525215
    C   C155  0.964320  0.864360  0.467440  0.490655
    C   C156  0.923130  0.990650  0.478720  0.949742
    O   O31   0.994010  0.079530  0.449250  -0.728079
    Zn  Zn13  0.053690  0.091650  0.560880  1.303448
    O   O32   0.017120  0.897920  0.491900  -0.571930
    O   O33   0.930660  0.873160  0.431480  -0.493368
    O   O34   0.904650  0.964480  0.426380  -0.680525
    O   O35   0.970620  0.002670  0.516780  -0.878761
    C   C157  0.076230  0.031820  0.626200  0.834943
    O   O36   0.020340  0.975530  0.438220  -1.263853
    C   C158  0.996090  0.120180  0.485410  0.827283
    O   O37   0.088320  0.004870  0.596610  -0.621702
    O   O38   0.077820  0.081050  0.627470  -0.732100
    O   O39   0.023000  0.134200  0.538060  -0.716644
    O   O40   0.088330  0.068240  0.533840  -1.191586
    Zn  Zn14  0.057690  0.996660  0.359230  1.195422
    C   C159  0.058190  0.057210  0.293070  0.728480
    C   C160  0.134390  0.001180  0.451360  1.043827
    H   H99   0.128430  0.092710  0.561090  0.374619
    H   H100  0.002380  0.035670  0.363880  0.344608
    C   C161  0.006270  0.951810  0.700490  -0.107978
    C   C162  0.972560  0.939160  0.645310  0.029209
    C   C163  0.996340  0.965940  0.621750  -0.251292
    C   C164  0.053090  0.001890  0.651180  -0.118458
    C   C165  0.086660  0.007910  0.703540  -0.015724
    C   C166  0.062800  0.982970  0.727970  0.063268
    H   H101  0.970560  0.957530  0.579890  0.197822
    H   H102  0.088390  0.989390  0.769100  0.123483
    C   C167  0.911370  0.895570  0.610430  0.179817
    C   C168  0.147210  0.036950  0.731960  0.086832
    C   C169  0.883140  0.929050  0.609350  -0.212760
    H   H103  0.899600  0.863370  0.625770  -0.047811
    H   H104  0.896150  0.867810  0.567070  -0.017595
    H   H105  0.893220  0.952560  0.651090  0.034590
    H   H106  0.838350  0.896360  0.579840  0.042688
    H   H107  0.895800  0.962750  0.595730  0.096727
    C   C170  0.158900  0.990610  0.712120  -0.309503
    H   H108  0.168610  0.056390  0.777720  0.059124
    H   H109  0.164740  0.075050  0.724570  0.013340
    H   H110  0.142270  0.952730  0.720110  0.042639
    H   H111  0.203530  0.012180  0.734800  0.059880
    H   H112  0.140330  0.972370  0.666950  0.109959
    C   C171  0.034710  0.039050  0.234120  -0.086334
    C   C172  0.067250  0.066210  0.217330  -0.103425
    C   C173  0.045880  0.041500  0.160650  -0.002595
    C   C174  0.992230  0.991310  0.120520  -0.279273
    C   C175  0.959600  0.964230  0.137340  0.121105
    C   C176  0.981100  0.988850  0.194070  -0.189937
    H   H113  0.070760  0.062170  0.147600  0.090455
    H   H114  0.956270  0.968250  0.207190  0.098966
    C   C177  0.125260  0.120740  0.259470  0.296862
    C   C178  0.901160  0.910500  0.095160  -0.009659
    C   C179  0.165450  0.101850  0.278460  -0.119875
    H   H115  0.130170  0.149670  0.296180  -0.004241
    H   H116  0.135880  0.149460  0.240800  -0.069528
    H   H117  0.157760  0.075550  0.299860  0.077500
    H   H118  0.207600  0.142660  0.307960  0.017574
    H   H119  0.162020  0.074140  0.242320  -0.007638
    C   C180  0.862260  0.930580  0.073730  -0.019385
    H   H120  0.888980  0.883320  0.114380  -0.001831
    H   H121  0.896420  0.879660  0.059650  0.043838
    H   H122  0.864350  0.958730  0.108520  -0.013122
    H   H123  0.819900  0.890360  0.042770  0.016982
    H   H124  0.872630  0.956890  0.053310  0.063230
    C   C181  0.287660  0.431740  0.492250  0.151380
    C   C182  0.231070  0.394820  0.450910  -0.022903
    C   C183  0.199970  0.338400  0.445040  -0.145679
    C   C184  0.224850  0.318490  0.480380  0.090181
    C   C185  0.281910  0.354720  0.520450  -0.013296
    C   C186  0.312820  0.410990  0.526170  -0.208045
    H   H125  0.156290  0.310650  0.413800  0.120907
    H   H126  0.356490  0.438970  0.557510  0.127346
    Cl  Cl1   0.198630  0.418800  0.406340  -0.077696
    Cl  Cl2   0.315600  0.329840  0.562970  -0.063717
    C   C187  0.811960  0.981110  0.520430  0.095597
    C   C188  0.857720  0.037470  0.540800  0.030821
    C   C189  0.893560  0.040260  0.526420  -0.167619
    C   C190  0.884570  0.987140  0.492550  -0.067217
    C   C191  0.839420  0.930760  0.473280  0.025145
    C   C192  0.802750  0.928140  0.486120  -0.154660
    H   H127  0.928470  0.083700  0.541770  0.128839
    H   H128  0.768130  0.884670  0.471200  0.119884
    Cl  Cl3   0.870960  0.104750  0.584780  -0.073194
    Cl  Cl4   0.830470  0.862950  0.436590  -0.073621
    C   C193  0.181240  0.995810  0.474490  -0.164024
    C   C194  0.193070  0.976790  0.514910  0.082994
    C   C195  0.237180  0.970510  0.535420  -0.211929
    C   C196  0.270200  0.984160  0.516600  0.154934
    C   C197  0.260380  0.006860  0.478850  0.020090
    C   C198  0.215470  0.011590  0.457260  -0.152093
    H   H129  0.245100  0.953810  0.565090  0.134932
    H   H130  0.207310  0.027780  0.427220  0.138339
    Cl  Cl5   0.152330  0.959530  0.539350  -0.104292
    Cl  Cl6   0.304350  0.029990  0.458710  -0.084526
    C   C199  0.178470  0.311530  0.906710  0.234845
    C   C200  0.148880  0.305890  0.929730  -0.022148
    C   C201  0.114690  0.249320  0.921250  -0.165839
    C   C202  0.109800  0.198010  0.890100  -0.104256
    C   C203  0.137900  0.203310  0.865300  0.288120
    C   C204  0.172070  0.260000  0.873750  -0.407191
    H   H131  0.092870  0.245460  0.940050  0.141720
    H   H132  0.194600  0.264180  0.855740  0.159888
    Cl  Cl7   0.155650  0.369740  0.970850  -0.078004
    Cl  Cl8   0.132940  0.139990  0.825920  -0.170795
    C   C205  0.687670  0.865270  0.929710  0.134123
    C   C206  0.675340  0.819730  0.883690  -0.000371
    C   C207  0.713300  0.830130  0.871300  -0.162512
    C   C208  0.763060  0.886330  0.903500  0.096921
    C   C209  0.773090  0.933600  0.946190  -0.015397
    C   C210  0.735950  0.922550  0.959840  -0.188149
    H   H133  0.704620  0.793990  0.837420  0.126949
    H   H134  0.744830  0.958360  0.994170  0.121886
    Cl  Cl9   0.612140  0.749720  0.840740  -0.065449
    Cl  Cl10  0.830500  0.007430  0.980920  -0.049413
    C   C211  0.073130  0.880100  0.915030  -0.213594
    C   C212  0.099660  0.888880  0.969740  0.133654
    C   C213  0.144430  0.883720  0.991990  -0.215026
    C   C214  0.162780  0.869580  0.959980  0.176001
    C   C215  0.136680  0.861690  0.905640  -0.037029
    C   C216  0.092290  0.867160  0.883570  -0.071865
    H   H135  0.164220  0.889460  0.033730  0.132383
    H   H136  0.072420  0.861050  0.841690  0.114441
    Cl  Cl11  0.075680  0.903300  0.009830  -0.124525
    Cl  Cl12  0.158030  0.842810  0.863960  -0.056685
    C   C217  0.891820  0.182100  0.459150  0.113217
    C   C218  0.869240  0.120180  0.428420  -0.027372
    C   C219  0.903540  0.100170  0.431900  -0.065239
    C   C220  0.960180  0.141500  0.465630  -0.085732
    C   C221  0.981840  0.203690  0.490300  0.026281
    C   C222  0.947840  0.223740  0.487600  -0.156446
    H   H137  0.886350  0.052290  0.410880  0.094526
    H   H138  0.965340  0.271600  0.509770  0.127036
    Cl  Cl13  0.798290  0.067320  0.385680  -0.076921
    Cl  Cl14  0.052030  0.256960  0.526530  -0.066551
    C   C223  0.901300  0.738620  0.518480  0.110284
    C   C224  0.952170  0.793720  0.557360  -0.014632
    C   C225  0.972930  0.833550  0.539900  -0.051199
    C   C226  0.943070  0.819380  0.483820  -0.073525
    C   C227  0.892470  0.763560  0.444670  0.216311
    C   C228  0.871630  0.723960  0.462360  -0.311333
    H   H139  0.012230  0.875800  0.570110  0.100730
    H   H140  0.832920  0.680990  0.432170  0.137392
    Cl  Cl15  0.990720  0.813070  0.628040  -0.090950
    Cl  Cl16  0.856790  0.740290  0.372960  -0.098894
    C   C229  0.412760  0.222600  0.556950  0.066796
    C   C230  0.391990  0.194070  0.581990  0.008227
    C   C231  0.338580  0.173730  0.564670  -0.118149
    C   C232  0.305550  0.181520  0.522360  0.082150
    C   C233  0.325580  0.207420  0.495450  -0.063711
    C   C234  0.378940  0.227720  0.512860  -0.157315
    H   H141  0.322970  0.152590  0.584620  0.094148
    H   H142  0.394600  0.248840  0.492930  0.102469
    Cl  Cl17  0.432750  0.184600  0.635770  -0.123559
    Cl  Cl18  0.285430  0.217770  0.441880  -0.041771
    C   C235  0.736670  0.010700  0.784310  0.073841
    C   C236  0.735170  0.957980  0.763200  0.040722
    C   C237  0.781970  0.957520  0.790580  -0.111443
    C   C238  0.830340  0.009170  0.839450  -0.012976
    C   C239  0.833210  0.063510  0.857120  0.024448
    C   C240  0.786330  0.063890  0.829900  -0.188140
    H   H143  0.780120  0.916260  0.775020  0.102788
    H   H144  0.788090  0.105130  0.845280  0.116579
    Cl  Cl19  0.674710  0.891870  0.703210  -0.096465
    Cl  Cl20  0.895550  0.131850  0.911860  -0.054900
    C   C241  0.753220  0.575000  0.844240  0.177292
    C   C242  0.778840  0.622080  0.897220  -0.030748
    C   C243  0.809130  0.682150  0.909940  -0.104165
    C   C244  0.815160  0.695670  0.870680  -0.125560
    C   C245  0.793600  0.648450  0.819670  0.101783
    C   C246  0.762070  0.588500  0.806360  -0.221506
    H   H145  0.826730  0.718260  0.949760  0.146488
    H   H146  0.744060  0.552360  0.766350  0.136437
    Cl  Cl21  0.774140  0.606420  0.948320  -0.074569
    Cl  Cl22  0.807160  0.663820  0.772790  -0.110160
    C   C247  0.179920  0.053920  0.908830  -0.047128
    C   C248  0.221950  0.114360  0.932090  0.116383
    C   C249  0.262040  0.126880  0.922610  -0.297965
    C   C250  0.260710  0.079860  0.889970  0.268738
    C   C251  0.220010  0.019570  0.868480  -0.073398
    C   C252  0.179950  0.006930  0.878000  -0.172284
    H   H147  0.293640  0.173330  0.939630  0.120648
    H   H148  0.147620  0.960490  0.859660  0.162219
    Cl  Cl23  0.223490  0.175090  0.970600  -0.073878
    Cl  Cl24  0.217550  0.959390  0.827870  -0.028049
